<?xml version="1.0" encoding="UTF-8"?>
<!-- generated on 2021-09-29 15:21:54.301331 by findAllRoutes.py v1_9_2+0000-4206cfae24
  options: -n test2.net.xml -o allRoute.rou.xml
-->
<routes xmlns:xsi="http://www.w3.org/2001/XMLSchema-instance" xsi:noNamespaceSchemaLocation="http://sumo.dlr.de/xsd/routes_file.xsd">
    <route id="0" edges="-gneE0"/>
    <route id="1" edges="-gneE1"/>
    <route id="2" edges="-gneE10"/>
    <route id="3" edges="-gneE11"/>
    <route id="4" edges="-gneE12"/>
    <route id="5" edges="-gneE13"/>
    <route id="6" edges="-gneE14"/>
    <route id="7" edges="-gneE15"/>
    <route id="8" edges="-gneE16"/>
    <route id="9" edges="-gneE17"/>
    <route id="10" edges="-gneE18"/>
    <route id="11" edges="-gneE19"/>
    <route id="12" edges="-gneE2"/>
    <route id="13" edges="-gneE20"/>
    <route id="14" edges="-gneE21"/>
    <route id="15" edges="-gneE22"/>
    <route id="16" edges="-gneE23"/>
    <route id="17" edges="-gneE24"/>
    <route id="18" edges="-gneE25"/>
    <route id="19" edges="-gneE26"/>
    <route id="20" edges="-gneE27"/>
    <route id="21" edges="-gneE3"/>
    <route id="22" edges="-gneE38"/>
    <route id="23" edges="-gneE39"/>
    <route id="24" edges="-gneE4"/>
    <route id="25" edges="-gneE40"/>
    <route id="26" edges="-gneE41"/>
    <route id="27" edges="-gneE42"/>
    <route id="28" edges="-gneE43"/>
    <route id="29" edges="-gneE44"/>
    <route id="30" edges="-gneE45"/>
    <route id="31" edges="-gneE46"/>
    <route id="32" edges="-gneE47"/>
    <route id="33" edges="-gneE48"/>
    <route id="34" edges="-gneE49"/>
    <route id="35" edges="-gneE5"/>
    <route id="36" edges="-gneE50"/>
    <route id="37" edges="-gneE51"/>
    <route id="38" edges="-gneE52"/>
    <route id="39" edges="-gneE53"/>
    <route id="40" edges="-gneE54"/>
    <route id="41" edges="-gneE55"/>
    <route id="42" edges="-gneE56"/>
    <route id="43" edges="-gneE57"/>
    <route id="44" edges="-gneE58"/>
    <route id="45" edges="-gneE59"/>
    <route id="46" edges="-gneE6"/>
    <route id="47" edges="-gneE60"/>
    <route id="48" edges="-gneE61"/>
    <route id="49" edges="-gneE7"/>
    <route id="50" edges="-gneE8"/>
    <route id="51" edges="-gneE9"/>
    <route id="52" edges="gneE0"/>
    <route id="53" edges="gneE1"/>
    <route id="54" edges="gneE10"/>
    <route id="55" edges="gneE11"/>
    <route id="56" edges="gneE12"/>
    <route id="57" edges="gneE13"/>
    <route id="58" edges="gneE14"/>
    <route id="59" edges="gneE15"/>
    <route id="60" edges="gneE16"/>
    <route id="61" edges="gneE17"/>
    <route id="62" edges="gneE18"/>
    <route id="63" edges="gneE19"/>
    <route id="64" edges="gneE2"/>
    <route id="65" edges="gneE20"/>
    <route id="66" edges="gneE21"/>
    <route id="67" edges="gneE22"/>
    <route id="68" edges="gneE23"/>
    <route id="69" edges="gneE24"/>
    <route id="70" edges="gneE25"/>
    <route id="71" edges="gneE26"/>
    <route id="72" edges="gneE27"/>
    <route id="73" edges="gneE3"/>
    <route id="74" edges="gneE38"/>
    <route id="75" edges="gneE39"/>
    <route id="76" edges="gneE4"/>
    <route id="77" edges="gneE40"/>
    <route id="78" edges="gneE41"/>
    <route id="79" edges="gneE42"/>
    <route id="80" edges="gneE43"/>
    <route id="81" edges="gneE44"/>
    <route id="82" edges="gneE45"/>
    <route id="83" edges="gneE46"/>
    <route id="84" edges="gneE47"/>
    <route id="85" edges="gneE48"/>
    <route id="86" edges="gneE49"/>
    <route id="87" edges="gneE5"/>
    <route id="88" edges="gneE50"/>
    <route id="89" edges="gneE51"/>
    <route id="90" edges="gneE52"/>
    <route id="91" edges="gneE53"/>
    <route id="92" edges="gneE54"/>
    <route id="93" edges="gneE55"/>
    <route id="94" edges="gneE56"/>
    <route id="95" edges="gneE57"/>
    <route id="96" edges="gneE58"/>
    <route id="97" edges="gneE59"/>
    <route id="98" edges="gneE6"/>
    <route id="99" edges="gneE60"/>
    <route id="100" edges="gneE61"/>
    <route id="101" edges="gneE7"/>
    <route id="102" edges="gneE8"/>
    <route id="103" edges="gneE9"/>
</routes>
