<?xml version="1.0" encoding="UTF-8"?>

<!-- generated on 2021-09-29 15:19:56 by Eclipse SUMO GUI Version 1.9.2
-->

<configuration xmlns:xsi="http://www.w3.org/2001/XMLSchema-instance" xsi:noNamespaceSchemaLocation="http://sumo.dlr.de/xsd/sumoConfiguration.xsd">
    <time-to-teleport value="-1"/>
    <input>
        <net-file value="deadlock.net.xml"/>
    </input>
    <gui_only>
        <gui-settings-file value="view.xml"/>
    </gui_only>
</configuration>
