<?xml version="1.0" encoding="UTF-8"?>

<!-- generated on 2021-09-29 15:19:06 by Eclipse SUMO netedit Version 1.9.2
<configuration xmlns:xsi="http://www.w3.org/2001/XMLSchema-instance" xsi:noNamespaceSchemaLocation="http://sumo.dlr.de/xsd/netconvertConfiguration.xsd">

    <output>
        <output-file value="C:\Users\hi672\Desktop\sumo\test2.net.xml"/>
    </output>

    <processing>
        <offset.disable-normalization value="true"/>
    </processing>

    <junctions>
        <no-turnarounds value="true"/>
    </junctions>

    <report>
        <aggregate-warnings value="5"/>
    </report>

</configuration>
-->

<net version="1.9" junctionCornerDetail="5" limitTurnSpeed="5.50" xmlns:xsi="http://www.w3.org/2001/XMLSchema-instance" xsi:noNamespaceSchemaLocation="http://sumo.dlr.de/xsd/net_file.xsd">

    <location netOffset="0.00,0.00" convBoundary="-200.00,-200.00,300.00,300.00" origBoundary="10000000000.00,10000000000.00,-10000000000.00,-10000000000.00" projParameter="!"/>

    <edge id=":gneJ0_0" function="internal">
        <lane id=":gneJ0_0_0" index="0" speed="5.47" length="9.74" shape="-1.60,111.73 -1.95,108.63 -2.99,107.22 -4.73,107.48 -7.16,109.42"/>
    </edge>
    <edge id=":gneJ0_1" function="internal">
        <lane id=":gneJ0_1_0" index="0" speed="8.54" length="16.33" shape="-1.60,111.73 -2.23,107.30 -4.13,104.13 -7.30,102.23 -11.73,101.60"/>
    </edge>
    <edge id=":gneJ0_2" function="internal">
        <lane id=":gneJ0_2_0" index="0" speed="13.89" length="18.93" shape="-1.60,111.73 -1.60,92.80"/>
    </edge>
    <edge id=":gneJ0_3" function="internal">
        <lane id=":gneJ0_3_0" index="0" speed="8.71" length="6.41" shape="-1.60,111.73 -0.84,107.40 -0.00,105.56"/>
    </edge>
    <edge id=":gneJ0_20" function="internal">
        <lane id=":gneJ0_20_0" index="0" speed="8.71" length="10.61" shape="-0.00,105.56 1.15,103.07 3.97,99.73 7.20,98.40"/>
    </edge>
    <edge id=":gneJ0_4" function="internal">
        <lane id=":gneJ0_4_0" index="0" speed="7.65" length="12.89" shape="7.20,101.60 4.75,102.23 3.00,104.13 1.95,107.30 1.60,111.73"/>
    </edge>
    <edge id=":gneJ0_5" function="internal">
        <lane id=":gneJ0_5_0" index="0" speed="13.42" length="16.74" shape="7.20,101.60 3.85,102.09 0.34,103.56 -3.33,106.00 -7.16,109.42"/>
    </edge>
    <edge id=":gneJ0_6" function="internal">
        <lane id=":gneJ0_6_0" index="0" speed="13.89" length="18.93" shape="7.20,101.60 -11.73,101.60"/>
    </edge>
    <edge id=":gneJ0_7" function="internal">
        <lane id=":gneJ0_7_0" index="0" speed="8.00" length="14.19" shape="7.20,101.60 3.35,101.05 0.60,99.40 -1.05,96.65 -1.60,92.80"/>
    </edge>
    <edge id=":gneJ0_8" function="internal">
        <lane id=":gneJ0_8_0" index="0" speed="6.51" length="9.03" shape="1.60,92.80 1.95,95.25 3.00,97.00 4.75,98.05 7.20,98.40"/>
    </edge>
    <edge id=":gneJ0_9" function="internal">
        <lane id=":gneJ0_9_0" index="0" speed="13.89" length="18.93" shape="1.60,92.80 1.60,111.73"/>
    </edge>
    <edge id=":gneJ0_10" function="internal">
        <lane id=":gneJ0_10_0" index="0" speed="13.89" length="6.85" shape="1.60,92.80 1.05,96.79 -0.00,99.41"/>
    </edge>
    <edge id=":gneJ0_11" function="internal">
        <lane id=":gneJ0_11_0" index="0" speed="8.71" length="5.08" shape="1.60,92.80 0.27,96.03 -0.94,97.05"/>
    </edge>
    <edge id=":gneJ0_21" function="internal">
        <lane id=":gneJ0_21_0" index="0" speed="13.89" length="12.39" shape="-0.00,99.41 -0.59,100.89 -3.33,105.10 -7.16,109.42"/>
    </edge>
    <edge id=":gneJ0_22" function="internal">
        <lane id=":gneJ0_22_0" index="0" speed="8.71" length="11.94" shape="-0.94,97.05 -3.07,98.85 -7.40,100.84 -11.73,101.60"/>
    </edge>
    <edge id=":gneJ0_12" function="internal">
        <lane id=":gneJ0_12_0" index="0" speed="7.65" length="12.89" shape="-11.73,98.40 -7.30,98.05 -4.13,97.00 -2.23,95.25 -1.60,92.80"/>
    </edge>
    <edge id=":gneJ0_13" function="internal">
        <lane id=":gneJ0_13_0" index="0" speed="13.89" length="18.93" shape="-11.73,98.40 7.20,98.40"/>
    </edge>
    <edge id=":gneJ0_14" function="internal">
        <lane id=":gneJ0_14_0" index="0" speed="9.73" length="21.49" shape="-11.73,98.40 -5.90,99.23 -1.73,101.73 0.77,105.90 1.60,111.73"/>
    </edge>
    <edge id=":gneJ0_15" function="internal">
        <lane id=":gneJ0_15_0" index="0" speed="7.42" length="19.31" shape="-11.73,98.40 -5.59,99.09 -2.79,101.16 -3.31,104.60 -7.16,109.42"/>
    </edge>
    <edge id=":gneJ0_16" function="internal">
        <lane id=":gneJ0_16_0" index="0" speed="5.47" length="9.74" shape="-9.42,107.16 -7.48,104.73 -7.22,102.99 -8.63,101.95 -11.73,101.60"/>
    </edge>
    <edge id=":gneJ0_17" function="internal">
        <lane id=":gneJ0_17_0" index="0" speed="13.42" length="16.74" shape="-9.42,107.16 -6.00,103.33 -3.56,99.66 -2.09,96.15 -1.60,92.80"/>
    </edge>
    <edge id=":gneJ0_18" function="internal">
        <lane id=":gneJ0_18_0" index="0" speed="13.89" length="19.24" shape="-9.42,107.16 -5.10,103.33 -0.89,100.59 3.21,98.95 7.20,98.40"/>
    </edge>
    <edge id=":gneJ0_19" function="internal">
        <lane id=":gneJ0_19_0" index="0" speed="7.42" length="19.31" shape="-9.42,107.16 -4.60,103.31 -1.16,102.79 0.91,105.59 1.60,111.73"/>
    </edge>
    <edge id=":gneJ1_0" function="internal">
        <lane id=":gneJ1_0_0" index="0" speed="7.65" length="12.89" shape="-1.60,7.20 -2.23,4.75 -4.13,3.00 -7.30,1.95 -11.73,1.60"/>
    </edge>
    <edge id=":gneJ1_1" function="internal">
        <lane id=":gneJ1_1_0" index="0" speed="13.42" length="16.74" shape="-1.60,7.20 -2.09,3.85 -3.56,0.34 -6.00,-3.33 -9.42,-7.16"/>
    </edge>
    <edge id=":gneJ1_2" function="internal">
        <lane id=":gneJ1_2_0" index="0" speed="13.89" length="18.93" shape="-1.60,7.20 -1.60,-11.73"/>
    </edge>
    <edge id=":gneJ1_3" function="internal">
        <lane id=":gneJ1_3_0" index="0" speed="8.00" length="5.93" shape="-1.60,7.20 -1.05,3.35 -0.00,1.60"/>
    </edge>
    <edge id=":gneJ1_20" function="internal">
        <lane id=":gneJ1_20_0" index="0" speed="8.00" length="8.26" shape="-0.00,1.60 0.60,0.60 3.35,-1.05 7.20,-1.60"/>
    </edge>
    <edge id=":gneJ1_4" function="internal">
        <lane id=":gneJ1_4_0" index="0" speed="6.51" length="9.03" shape="7.20,1.60 4.75,1.95 3.00,3.00 1.95,4.75 1.60,7.20"/>
    </edge>
    <edge id=":gneJ1_5" function="internal">
        <lane id=":gneJ1_5_0" index="0" speed="13.89" length="18.93" shape="7.20,1.60 -11.73,1.60"/>
    </edge>
    <edge id=":gneJ1_6" function="internal">
        <lane id=":gneJ1_6_0" index="0" speed="13.89" length="19.24" shape="7.20,1.60 3.21,1.05 -0.89,-0.59 -5.10,-3.33 -9.42,-7.16"/>
    </edge>
    <edge id=":gneJ1_7" function="internal">
        <lane id=":gneJ1_7_0" index="0" speed="8.71" length="17.02" shape="7.20,1.60 3.97,0.27 1.15,-3.07 -0.84,-7.40 -1.60,-11.73"/>
    </edge>
    <edge id=":gneJ1_8" function="internal">
        <lane id=":gneJ1_8_0" index="0" speed="7.65" length="12.89" shape="1.60,-11.73 1.95,-7.30 3.00,-4.13 4.75,-2.23 7.20,-1.60"/>
    </edge>
    <edge id=":gneJ1_9" function="internal">
        <lane id=":gneJ1_9_0" index="0" speed="13.89" length="18.93" shape="1.60,-11.73 1.60,7.20"/>
    </edge>
    <edge id=":gneJ1_10" function="internal">
        <lane id=":gneJ1_10_0" index="0" speed="9.73" length="7.38" shape="1.60,-11.73 0.77,-5.90 0.00,-4.62"/>
    </edge>
    <edge id=":gneJ1_11" function="internal">
        <lane id=":gneJ1_11_0" index="0" speed="7.42" length="7.71" shape="1.60,-11.73 0.91,-5.59 0.00,-4.36"/>
    </edge>
    <edge id=":gneJ1_21" function="internal">
        <lane id=":gneJ1_21_0" index="0" speed="9.73" length="14.11" shape="0.00,-4.62 -1.73,-1.73 -5.90,0.77 -11.73,1.60"/>
    </edge>
    <edge id=":gneJ1_22" function="internal">
        <lane id=":gneJ1_22_0" index="0" speed="7.42" length="11.60" shape="0.00,-4.36 -1.16,-2.79 -4.60,-3.31 -9.42,-7.16"/>
    </edge>
    <edge id=":gneJ1_12" function="internal">
        <lane id=":gneJ1_12_0" index="0" speed="5.47" length="9.74" shape="-7.16,-9.42 -4.73,-7.48 -2.99,-7.22 -1.95,-8.63 -1.60,-11.73"/>
    </edge>
    <edge id=":gneJ1_13" function="internal">
        <lane id=":gneJ1_13_0" index="0" speed="13.42" length="16.74" shape="-7.16,-9.42 -3.33,-6.00 0.34,-3.56 3.85,-2.09 7.20,-1.60"/>
    </edge>
    <edge id=":gneJ1_14" function="internal">
        <lane id=":gneJ1_14_0" index="0" speed="13.89" length="19.24" shape="-7.16,-9.42 -3.33,-5.10 -0.59,-0.89 1.05,3.21 1.60,7.20"/>
    </edge>
    <edge id=":gneJ1_15" function="internal">
        <lane id=":gneJ1_15_0" index="0" speed="7.42" length="19.31" shape="-7.16,-9.42 -3.31,-4.60 -2.79,-1.16 -5.59,0.91 -11.73,1.60"/>
    </edge>
    <edge id=":gneJ1_16" function="internal">
        <lane id=":gneJ1_16_0" index="0" speed="5.47" length="9.74" shape="-11.73,-1.60 -8.63,-1.95 -7.22,-2.99 -7.48,-4.73 -9.42,-7.16"/>
    </edge>
    <edge id=":gneJ1_17" function="internal">
        <lane id=":gneJ1_17_0" index="0" speed="8.54" length="16.33" shape="-11.73,-1.60 -7.30,-2.23 -4.13,-4.13 -2.23,-7.30 -1.60,-11.73"/>
    </edge>
    <edge id=":gneJ1_18" function="internal">
        <lane id=":gneJ1_18_0" index="0" speed="13.89" length="18.93" shape="-11.73,-1.60 7.20,-1.60"/>
    </edge>
    <edge id=":gneJ1_19" function="internal">
        <lane id=":gneJ1_19_0" index="0" speed="8.71" length="17.02" shape="-11.73,-1.60 -7.40,-0.84 -3.07,1.15 0.27,3.97 1.60,7.20"/>
    </edge>
    <edge id=":gneJ10_0" function="internal">
        <lane id=":gneJ10_0_0" index="0" speed="6.51" length="9.03" shape="-101.60,7.20 -101.95,4.75 -103.00,3.00 -104.75,1.95 -107.20,1.60"/>
    </edge>
    <edge id=":gneJ10_1" function="internal">
        <lane id=":gneJ10_1_0" index="0" speed="13.89" length="14.40" shape="-101.60,7.20 -101.60,-7.20"/>
    </edge>
    <edge id=":gneJ10_2" function="internal">
        <lane id=":gneJ10_2_0" index="0" speed="8.00" length="5.93" shape="-101.60,7.20 -101.05,3.35 -100.00,1.60"/>
    </edge>
    <edge id=":gneJ10_12" function="internal">
        <lane id=":gneJ10_12_0" index="0" speed="8.00" length="8.26" shape="-100.00,1.60 -99.40,0.60 -96.65,-1.05 -92.80,-1.60"/>
    </edge>
    <edge id=":gneJ10_3" function="internal">
        <lane id=":gneJ10_3_0" index="0" speed="6.51" length="9.03" shape="-92.80,1.60 -95.25,1.95 -97.00,3.00 -98.05,4.75 -98.40,7.20"/>
    </edge>
    <edge id=":gneJ10_4" function="internal">
        <lane id=":gneJ10_4_0" index="0" speed="13.89" length="14.40" shape="-92.80,1.60 -107.20,1.60"/>
    </edge>
    <edge id=":gneJ10_5" function="internal">
        <lane id=":gneJ10_5_0" index="0" speed="8.00" length="14.19" shape="-92.80,1.60 -96.65,1.05 -99.40,-0.60 -101.05,-3.35 -101.60,-7.20"/>
    </edge>
    <edge id=":gneJ10_6" function="internal">
        <lane id=":gneJ10_6_0" index="0" speed="6.51" length="9.03" shape="-98.40,-7.20 -98.05,-4.75 -97.00,-3.00 -95.25,-1.95 -92.80,-1.60"/>
    </edge>
    <edge id=":gneJ10_7" function="internal">
        <lane id=":gneJ10_7_0" index="0" speed="13.89" length="14.40" shape="-98.40,-7.20 -98.40,7.20"/>
    </edge>
    <edge id=":gneJ10_8" function="internal">
        <lane id=":gneJ10_8_0" index="0" speed="8.00" length="5.93" shape="-98.40,-7.20 -98.95,-3.35 -100.00,-1.60"/>
    </edge>
    <edge id=":gneJ10_13" function="internal">
        <lane id=":gneJ10_13_0" index="0" speed="8.00" length="8.26" shape="-100.00,-1.60 -100.60,-0.60 -103.35,1.05 -107.20,1.60"/>
    </edge>
    <edge id=":gneJ10_9" function="internal">
        <lane id=":gneJ10_9_0" index="0" speed="6.51" length="9.03" shape="-107.20,-1.60 -104.75,-1.95 -103.00,-3.00 -101.95,-4.75 -101.60,-7.20"/>
    </edge>
    <edge id=":gneJ10_10" function="internal">
        <lane id=":gneJ10_10_0" index="0" speed="13.89" length="14.40" shape="-107.20,-1.60 -92.80,-1.60"/>
    </edge>
    <edge id=":gneJ10_11" function="internal">
        <lane id=":gneJ10_11_0" index="0" speed="8.00" length="14.19" shape="-107.20,-1.60 -103.35,-1.05 -100.60,0.60 -98.95,3.35 -98.40,7.20"/>
    </edge>
    <edge id=":gneJ11_0" function="internal">
        <lane id=":gneJ11_0_0" index="0" speed="6.51" length="9.03" shape="-101.60,107.20 -101.95,104.75 -103.00,103.00 -104.75,101.95 -107.20,101.60"/>
    </edge>
    <edge id=":gneJ11_1" function="internal">
        <lane id=":gneJ11_1_0" index="0" speed="13.89" length="14.40" shape="-101.60,107.20 -101.60,92.80"/>
    </edge>
    <edge id=":gneJ11_2" function="internal">
        <lane id=":gneJ11_2_0" index="0" speed="8.00" length="5.93" shape="-101.60,107.20 -101.05,103.35 -100.00,101.60"/>
    </edge>
    <edge id=":gneJ11_12" function="internal">
        <lane id=":gneJ11_12_0" index="0" speed="8.00" length="8.26" shape="-100.00,101.60 -99.40,100.60 -96.65,98.95 -92.80,98.40"/>
    </edge>
    <edge id=":gneJ11_3" function="internal">
        <lane id=":gneJ11_3_0" index="0" speed="6.51" length="9.03" shape="-92.80,101.60 -95.25,101.95 -97.00,103.00 -98.05,104.75 -98.40,107.20"/>
    </edge>
    <edge id=":gneJ11_4" function="internal">
        <lane id=":gneJ11_4_0" index="0" speed="13.89" length="14.40" shape="-92.80,101.60 -107.20,101.60"/>
    </edge>
    <edge id=":gneJ11_5" function="internal">
        <lane id=":gneJ11_5_0" index="0" speed="8.00" length="14.19" shape="-92.80,101.60 -96.65,101.05 -99.40,99.40 -101.05,96.65 -101.60,92.80"/>
    </edge>
    <edge id=":gneJ11_6" function="internal">
        <lane id=":gneJ11_6_0" index="0" speed="6.51" length="9.03" shape="-98.40,92.80 -98.05,95.25 -97.00,97.00 -95.25,98.05 -92.80,98.40"/>
    </edge>
    <edge id=":gneJ11_7" function="internal">
        <lane id=":gneJ11_7_0" index="0" speed="13.89" length="14.40" shape="-98.40,92.80 -98.40,107.20"/>
    </edge>
    <edge id=":gneJ11_8" function="internal">
        <lane id=":gneJ11_8_0" index="0" speed="8.00" length="5.93" shape="-98.40,92.80 -98.95,96.65 -100.00,98.40"/>
    </edge>
    <edge id=":gneJ11_13" function="internal">
        <lane id=":gneJ11_13_0" index="0" speed="8.00" length="8.26" shape="-100.00,98.40 -100.60,99.40 -103.35,101.05 -107.20,101.60"/>
    </edge>
    <edge id=":gneJ11_9" function="internal">
        <lane id=":gneJ11_9_0" index="0" speed="6.51" length="9.03" shape="-107.20,98.40 -104.75,98.05 -103.00,97.00 -101.95,95.25 -101.60,92.80"/>
    </edge>
    <edge id=":gneJ11_10" function="internal">
        <lane id=":gneJ11_10_0" index="0" speed="13.89" length="14.40" shape="-107.20,98.40 -92.80,98.40"/>
    </edge>
    <edge id=":gneJ11_11" function="internal">
        <lane id=":gneJ11_11_0" index="0" speed="8.00" length="14.19" shape="-107.20,98.40 -103.35,98.95 -100.60,100.60 -98.95,103.35 -98.40,107.20"/>
    </edge>
    <edge id=":gneJ12_0" function="internal">
        <lane id=":gneJ12_0_0" index="0" speed="5.47" length="9.74" shape="-101.60,211.73 -101.95,208.63 -102.99,207.22 -104.73,207.48 -107.16,209.42"/>
    </edge>
    <edge id=":gneJ12_1" function="internal">
        <lane id=":gneJ12_1_0" index="0" speed="8.54" length="16.33" shape="-101.60,211.73 -102.23,207.30 -104.13,204.13 -107.30,202.23 -111.73,201.60"/>
    </edge>
    <edge id=":gneJ12_2" function="internal">
        <lane id=":gneJ12_2_0" index="0" speed="13.89" length="23.45" shape="-101.60,211.73 -101.60,188.27"/>
    </edge>
    <edge id=":gneJ12_3" function="internal">
        <lane id=":gneJ12_3_0" index="0" speed="13.89" length="9.68" shape="-101.60,211.73 -101.05,205.76 -100.00,202.22"/>
    </edge>
    <edge id=":gneJ12_4" function="internal">
        <lane id=":gneJ12_4_0" index="0" speed="9.73" length="7.38" shape="-101.60,211.73 -100.77,205.90 -100.00,204.62"/>
    </edge>
    <edge id=":gneJ12_30" function="internal">
        <lane id=":gneJ12_30_0" index="0" speed="13.89" length="13.81" shape="-100.00,202.22 -99.41,200.24 -96.67,195.18 -92.84,190.58"/>
    </edge>
    <edge id=":gneJ12_31" function="internal">
        <lane id=":gneJ12_31_0" index="0" speed="9.73" length="14.11" shape="-100.00,204.62 -98.27,201.73 -94.10,199.23 -88.27,198.40"/>
    </edge>
    <edge id=":gneJ12_5" function="internal">
        <lane id=":gneJ12_5_0" index="0" speed="8.54" length="16.33" shape="-88.27,201.60 -92.70,202.23 -95.87,204.13 -97.77,207.30 -98.40,211.73"/>
    </edge>
    <edge id=":gneJ12_6" function="internal">
        <lane id=":gneJ12_6_0" index="0" speed="13.89" length="20.98" shape="-88.27,201.60 -93.60,202.09 -98.53,203.56 -103.05,206.00 -107.16,209.42"/>
    </edge>
    <edge id=":gneJ12_7" function="internal">
        <lane id=":gneJ12_7_0" index="0" speed="13.89" length="23.45" shape="-88.27,201.60 -111.73,201.60"/>
    </edge>
    <edge id=":gneJ12_8" function="internal">
        <lane id=":gneJ12_8_0" index="0" speed="9.73" length="21.49" shape="-88.27,201.60 -94.10,200.77 -98.27,198.27 -100.77,194.10 -101.60,188.27"/>
    </edge>
    <edge id=":gneJ12_9" function="internal">
        <lane id=":gneJ12_9_0" index="0" speed="7.42" length="19.31" shape="-88.27,201.60 -94.41,200.91 -97.21,198.84 -96.69,195.40 -92.84,190.58"/>
    </edge>
    <edge id=":gneJ12_10" function="internal">
        <lane id=":gneJ12_10_0" index="0" speed="5.47" length="9.74" shape="-90.58,192.84 -92.52,195.27 -92.78,197.01 -91.37,198.05 -88.27,198.40"/>
    </edge>
    <edge id=":gneJ12_11" function="internal">
        <lane id=":gneJ12_11_0" index="0" speed="13.89" length="20.98" shape="-90.58,192.84 -94.00,196.95 -96.44,201.47 -97.91,206.40 -98.40,211.73"/>
    </edge>
    <edge id=":gneJ12_12" function="internal">
        <lane id=":gneJ12_12_0" index="0" speed="13.89" length="23.45" shape="-90.58,192.84 -107.16,209.42"/>
    </edge>
    <edge id=":gneJ12_13" function="internal">
        <lane id=":gneJ12_13_0" index="0" speed="13.89" length="23.49" shape="-90.58,192.84 -95.18,196.67 -100.24,199.41 -105.76,201.05 -111.73,201.60"/>
    </edge>
    <edge id=":gneJ12_14" function="internal">
        <lane id=":gneJ12_14_0" index="0" speed="7.42" length="19.31" shape="-90.58,192.84 -95.40,196.69 -98.84,197.21 -100.91,194.41 -101.60,188.27"/>
    </edge>
    <edge id=":gneJ12_15" function="internal">
        <lane id=":gneJ12_15_0" index="0" speed="5.47" length="9.74" shape="-98.40,188.27 -98.05,191.37 -97.01,192.78 -95.27,192.52 -92.84,190.58"/>
    </edge>
    <edge id=":gneJ12_16" function="internal">
        <lane id=":gneJ12_16_0" index="0" speed="8.54" length="16.33" shape="-98.40,188.27 -97.77,192.70 -95.87,195.87 -92.70,197.77 -88.27,198.40"/>
    </edge>
    <edge id=":gneJ12_17" function="internal">
        <lane id=":gneJ12_17_0" index="0" speed="13.89" length="23.45" shape="-98.40,188.27 -98.40,211.73"/>
    </edge>
    <edge id=":gneJ12_18" function="internal">
        <lane id=":gneJ12_18_0" index="0" speed="13.89" length="9.68" shape="-98.40,188.27 -98.95,194.24 -100.00,197.78"/>
    </edge>
    <edge id=":gneJ12_19" function="internal">
        <lane id=":gneJ12_19_0" index="0" speed="9.73" length="7.38" shape="-98.40,188.27 -99.23,194.10 -100.00,195.38"/>
    </edge>
    <edge id=":gneJ12_32" function="internal">
        <lane id=":gneJ12_32_0" index="0" speed="13.89" length="13.81" shape="-100.00,197.78 -100.59,199.76 -103.33,204.82 -107.16,209.42"/>
    </edge>
    <edge id=":gneJ12_33" function="internal">
        <lane id=":gneJ12_33_0" index="0" speed="9.73" length="14.11" shape="-100.00,195.38 -101.73,198.27 -105.90,200.77 -111.73,201.60"/>
    </edge>
    <edge id=":gneJ12_20" function="internal">
        <lane id=":gneJ12_20_0" index="0" speed="8.54" length="16.33" shape="-111.73,198.40 -107.30,197.77 -104.13,195.87 -102.23,192.70 -101.60,188.27"/>
    </edge>
    <edge id=":gneJ12_21" function="internal">
        <lane id=":gneJ12_21_0" index="0" speed="13.89" length="20.98" shape="-111.73,198.40 -106.40,197.91 -101.47,196.44 -96.95,194.00 -92.84,190.58"/>
    </edge>
    <edge id=":gneJ12_22" function="internal">
        <lane id=":gneJ12_22_0" index="0" speed="13.89" length="23.45" shape="-111.73,198.40 -88.27,198.40"/>
    </edge>
    <edge id=":gneJ12_23" function="internal">
        <lane id=":gneJ12_23_0" index="0" speed="9.73" length="21.49" shape="-111.73,198.40 -105.90,199.23 -101.73,201.73 -99.23,205.90 -98.40,211.73"/>
    </edge>
    <edge id=":gneJ12_24" function="internal">
        <lane id=":gneJ12_24_0" index="0" speed="7.42" length="19.31" shape="-111.73,198.40 -105.59,199.09 -102.79,201.16 -103.31,204.60 -107.16,209.42"/>
    </edge>
    <edge id=":gneJ12_25" function="internal">
        <lane id=":gneJ12_25_0" index="0" speed="5.47" length="9.74" shape="-109.42,207.16 -107.48,204.73 -107.22,202.99 -108.63,201.95 -111.73,201.60"/>
    </edge>
    <edge id=":gneJ12_26" function="internal">
        <lane id=":gneJ12_26_0" index="0" speed="13.89" length="20.98" shape="-109.42,207.16 -106.00,203.05 -103.56,198.53 -102.09,193.60 -101.60,188.27"/>
    </edge>
    <edge id=":gneJ12_27" function="internal">
        <lane id=":gneJ12_27_0" index="0" speed="13.89" length="23.45" shape="-109.42,207.16 -92.84,190.58"/>
    </edge>
    <edge id=":gneJ12_28" function="internal">
        <lane id=":gneJ12_28_0" index="0" speed="13.89" length="23.49" shape="-109.42,207.16 -104.82,203.33 -99.76,200.59 -94.24,198.95 -88.27,198.40"/>
    </edge>
    <edge id=":gneJ12_29" function="internal">
        <lane id=":gneJ12_29_0" index="0" speed="7.42" length="19.31" shape="-109.42,207.16 -104.60,203.31 -101.16,202.79 -99.09,205.59 -98.40,211.73"/>
    </edge>
    <edge id=":gneJ13_0" function="internal">
        <lane id=":gneJ13_0_0" index="0" speed="8.54" length="16.33" shape="198.40,211.73 197.77,207.30 195.87,204.13 192.70,202.23 188.27,201.60"/>
    </edge>
    <edge id=":gneJ13_1" function="internal">
        <lane id=":gneJ13_1_0" index="0" speed="13.89" length="20.98" shape="198.40,211.73 197.91,206.40 196.44,201.47 194.00,196.95 190.58,192.84"/>
    </edge>
    <edge id=":gneJ13_2" function="internal">
        <lane id=":gneJ13_2_0" index="0" speed="13.89" length="23.45" shape="198.40,211.73 198.40,188.27"/>
    </edge>
    <edge id=":gneJ13_3" function="internal">
        <lane id=":gneJ13_3_0" index="0" speed="9.73" length="7.38" shape="198.40,211.73 199.23,205.90 200.00,204.62"/>
    </edge>
    <edge id=":gneJ13_4" function="internal">
        <lane id=":gneJ13_4_0" index="0" speed="7.42" length="7.71" shape="198.40,211.73 199.09,205.59 200.00,204.36"/>
    </edge>
    <edge id=":gneJ13_30" function="internal">
        <lane id=":gneJ13_30_0" index="0" speed="9.73" length="14.11" shape="200.00,204.62 201.73,201.73 205.90,199.23 211.73,198.40"/>
    </edge>
    <edge id=":gneJ13_31" function="internal">
        <lane id=":gneJ13_31_0" index="0" speed="7.42" length="11.60" shape="200.00,204.36 201.16,202.79 204.60,203.31 209.42,207.16"/>
    </edge>
    <edge id=":gneJ13_5" function="internal">
        <lane id=":gneJ13_5_0" index="0" speed="5.47" length="9.74" shape="207.16,209.42 204.73,207.48 202.99,207.22 201.95,208.63 201.60,211.73"/>
    </edge>
    <edge id=":gneJ13_6" function="internal">
        <lane id=":gneJ13_6_0" index="0" speed="13.89" length="20.98" shape="207.16,209.42 203.05,206.00 198.53,203.56 193.60,202.09 188.27,201.60"/>
    </edge>
    <edge id=":gneJ13_7" function="internal">
        <lane id=":gneJ13_7_0" index="0" speed="13.89" length="23.45" shape="207.16,209.42 190.58,192.84"/>
    </edge>
    <edge id=":gneJ13_8" function="internal">
        <lane id=":gneJ13_8_0" index="0" speed="13.89" length="23.49" shape="207.16,209.42 203.33,204.82 200.59,199.76 198.95,194.24 198.40,188.27"/>
    </edge>
    <edge id=":gneJ13_9" function="internal">
        <lane id=":gneJ13_9_0" index="0" speed="7.42" length="19.31" shape="207.16,209.42 203.31,204.60 202.79,201.16 205.59,199.09 211.73,198.40"/>
    </edge>
    <edge id=":gneJ13_10" function="internal">
        <lane id=":gneJ13_10_0" index="0" speed="5.47" length="9.74" shape="211.73,201.60 208.63,201.95 207.22,202.99 207.48,204.73 209.42,207.16"/>
    </edge>
    <edge id=":gneJ13_11" function="internal">
        <lane id=":gneJ13_11_0" index="0" speed="8.54" length="16.33" shape="211.73,201.60 207.30,202.23 204.13,204.13 202.23,207.30 201.60,211.73"/>
    </edge>
    <edge id=":gneJ13_12" function="internal">
        <lane id=":gneJ13_12_0" index="0" speed="13.89" length="23.45" shape="211.73,201.60 188.27,201.60"/>
    </edge>
    <edge id=":gneJ13_13" function="internal">
        <lane id=":gneJ13_13_0" index="0" speed="13.89" length="23.49" shape="211.73,201.60 205.76,201.05 200.24,199.41 195.18,196.67 190.58,192.84"/>
    </edge>
    <edge id=":gneJ13_14" function="internal">
        <lane id=":gneJ13_14_0" index="0" speed="9.73" length="21.49" shape="211.73,201.60 205.90,200.77 201.73,198.27 199.23,194.10 198.40,188.27"/>
    </edge>
    <edge id=":gneJ13_15" function="internal">
        <lane id=":gneJ13_15_0" index="0" speed="8.54" length="16.33" shape="201.60,188.27 202.23,192.70 204.13,195.87 207.30,197.77 211.73,198.40"/>
    </edge>
    <edge id=":gneJ13_16" function="internal">
        <lane id=":gneJ13_16_0" index="0" speed="13.89" length="20.98" shape="201.60,188.27 202.09,193.60 203.56,198.53 206.00,203.05 209.42,207.16"/>
    </edge>
    <edge id=":gneJ13_17" function="internal">
        <lane id=":gneJ13_17_0" index="0" speed="13.89" length="23.45" shape="201.60,188.27 201.60,211.73"/>
    </edge>
    <edge id=":gneJ13_18" function="internal">
        <lane id=":gneJ13_18_0" index="0" speed="9.73" length="7.38" shape="201.60,188.27 200.77,194.10 200.00,195.38"/>
    </edge>
    <edge id=":gneJ13_19" function="internal">
        <lane id=":gneJ13_19_0" index="0" speed="7.42" length="7.71" shape="201.60,188.27 200.91,194.41 200.00,195.64"/>
    </edge>
    <edge id=":gneJ13_32" function="internal">
        <lane id=":gneJ13_32_0" index="0" speed="9.73" length="14.11" shape="200.00,195.38 198.27,198.27 194.10,200.77 188.27,201.60"/>
    </edge>
    <edge id=":gneJ13_33" function="internal">
        <lane id=":gneJ13_33_0" index="0" speed="7.42" length="11.60" shape="200.00,195.64 198.84,197.21 195.40,196.69 190.58,192.84"/>
    </edge>
    <edge id=":gneJ13_20" function="internal">
        <lane id=":gneJ13_20_0" index="0" speed="5.47" length="9.74" shape="192.84,190.58 195.27,192.52 197.01,192.78 198.05,191.37 198.40,188.27"/>
    </edge>
    <edge id=":gneJ13_21" function="internal">
        <lane id=":gneJ13_21_0" index="0" speed="13.89" length="20.98" shape="192.84,190.58 196.95,194.00 201.47,196.44 206.40,197.91 211.73,198.40"/>
    </edge>
    <edge id=":gneJ13_22" function="internal">
        <lane id=":gneJ13_22_0" index="0" speed="13.89" length="23.45" shape="192.84,190.58 209.42,207.16"/>
    </edge>
    <edge id=":gneJ13_23" function="internal">
        <lane id=":gneJ13_23_0" index="0" speed="13.89" length="23.49" shape="192.84,190.58 196.67,195.18 199.41,200.24 201.05,205.76 201.60,211.73"/>
    </edge>
    <edge id=":gneJ13_24" function="internal">
        <lane id=":gneJ13_24_0" index="0" speed="7.42" length="19.31" shape="192.84,190.58 196.69,195.40 197.21,198.84 194.41,200.91 188.27,201.60"/>
    </edge>
    <edge id=":gneJ13_25" function="internal">
        <lane id=":gneJ13_25_0" index="0" speed="5.47" length="9.74" shape="188.27,198.40 191.37,198.05 192.78,197.01 192.52,195.27 190.58,192.84"/>
    </edge>
    <edge id=":gneJ13_26" function="internal">
        <lane id=":gneJ13_26_0" index="0" speed="8.54" length="16.33" shape="188.27,198.40 192.70,197.77 195.87,195.87 197.77,192.70 198.40,188.27"/>
    </edge>
    <edge id=":gneJ13_27" function="internal">
        <lane id=":gneJ13_27_0" index="0" speed="13.89" length="23.45" shape="188.27,198.40 211.73,198.40"/>
    </edge>
    <edge id=":gneJ13_28" function="internal">
        <lane id=":gneJ13_28_0" index="0" speed="13.89" length="23.49" shape="188.27,198.40 194.24,198.95 199.76,200.59 204.82,203.33 209.42,207.16"/>
    </edge>
    <edge id=":gneJ13_29" function="internal">
        <lane id=":gneJ13_29_0" index="0" speed="9.73" length="21.49" shape="188.27,198.40 194.10,199.23 198.27,201.73 200.77,205.90 201.60,211.73"/>
    </edge>
    <edge id=":gneJ14_0" function="internal">
        <lane id=":gneJ14_0_0" index="0" speed="5.47" length="9.74" shape="198.40,-88.27 198.05,-91.37 197.01,-92.78 195.27,-92.52 192.84,-90.58"/>
    </edge>
    <edge id=":gneJ14_1" function="internal">
        <lane id=":gneJ14_1_0" index="0" speed="8.54" length="16.33" shape="198.40,-88.27 197.77,-92.70 195.87,-95.87 192.70,-97.77 188.27,-98.40"/>
    </edge>
    <edge id=":gneJ14_2" function="internal">
        <lane id=":gneJ14_2_0" index="0" speed="13.89" length="23.45" shape="198.40,-88.27 198.40,-111.73"/>
    </edge>
    <edge id=":gneJ14_3" function="internal">
        <lane id=":gneJ14_3_0" index="0" speed="13.89" length="7.19" shape="198.40,-88.27 199.27,-93.19 200.00,-95.26"/>
    </edge>
    <edge id=":gneJ14_4" function="internal">
        <lane id=":gneJ14_4_0" index="0" speed="9.73" length="7.38" shape="198.40,-88.27 199.23,-94.10 200.00,-95.38"/>
    </edge>
    <edge id=":gneJ14_30" function="internal">
        <lane id=":gneJ14_30_0" index="0" speed="13.89" length="15.96" shape="200.00,-95.26 201.45,-99.40 204.30,-105.33 207.16,-109.42"/>
    </edge>
    <edge id=":gneJ14_31" function="internal">
        <lane id=":gneJ14_31_0" index="0" speed="9.73" length="14.11" shape="200.00,-95.38 201.73,-98.27 205.90,-100.77 211.73,-101.60"/>
    </edge>
    <edge id=":gneJ14_5" function="internal">
        <lane id=":gneJ14_5_0" index="0" speed="8.54" length="16.33" shape="211.73,-98.40 207.30,-97.77 204.13,-95.87 202.23,-92.70 201.60,-88.27"/>
    </edge>
    <edge id=":gneJ14_6" function="internal">
        <lane id=":gneJ14_6_0" index="0" speed="13.89" length="20.98" shape="211.73,-98.40 206.40,-97.91 201.47,-96.44 196.95,-94.00 192.84,-90.58"/>
    </edge>
    <edge id=":gneJ14_7" function="internal">