<?xml version="1.0" encoding="UTF-8"?>

<!-- generated on 2021-11-24 13:03:26 by Eclipse SUMO netedit Version 1.9.2
<configuration xmlns:xsi="http://www.w3.org/2001/XMLSchema-instance" xsi:noNamespaceSchemaLocation="http://sumo.dlr.de/xsd/netconvertConfiguration.xsd">

    <output>
        <output-file value="C:\Users\hi672\Desktop\sumo\trafficLightFixed.net.xml"/>
    </output>

    <processing>
        <offset.disable-normalization value="true"/>
    </processing>

    <junctions>
        <no-turnarounds value="true"/>
    </junctions>

    <report>
        <aggregate-warnings value="5"/>
    </report>

</configuration>
-->

<net version="1.9" junctionCornerDetail="5" limitTurnSpeed="5.50" xmlns:xsi="http://www.w3.org/2001/XMLSchema-instance" xsi:noNamespaceSchemaLocation="http://sumo.dlr.de/xsd/net_file.xsd">

    <location netOffset="0.00,0.00" convBoundary="100.00,-300.00,600.00,200.00" origBoundary="10000000000.00,10000000000.00,-10000000000.00,-10000000000.00" projParameter="!"/>

    <edge id=":gneJ0_0" function="internal">
        <lane id=":gneJ0_0_0" index="0" speed="5.47" length="9.74" shape="298.40,11.73 298.05,8.63 297.01,7.22 295.27,7.48 292.84,9.42"/>
    </edge>
    <edge id=":gneJ0_1" function="internal">
        <lane id=":gneJ0_1_0" index="0" speed="8.54" length="16.33" shape="298.40,11.73 297.77,7.30 295.87,4.13 292.70,2.23 288.27,1.60"/>
    </edge>
    <edge id=":gneJ0_2" function="internal">
        <lane id=":gneJ0_2_0" index="0" speed="13.89" length="18.93" shape="298.40,11.73 298.40,-7.20"/>
    </edge>
    <edge id=":gneJ0_3" function="internal">
        <lane id=":gneJ0_3_0" index="0" speed="8.71" length="6.41" shape="298.40,11.73 299.16,7.40 300.00,5.56"/>
    </edge>
    <edge id=":gneJ0_20" function="internal">
        <lane id=":gneJ0_20_0" index="0" speed="8.71" length="10.61" shape="300.00,5.56 301.15,3.07 303.97,-0.27 307.20,-1.60"/>
    </edge>
    <edge id=":gneJ0_4" function="internal">
        <lane id=":gneJ0_4_0" index="0" speed="7.65" length="12.89" shape="307.20,1.60 304.75,2.23 303.00,4.13 301.95,7.30 301.60,11.73"/>
    </edge>
    <edge id=":gneJ0_5" function="internal">
        <lane id=":gneJ0_5_0" index="0" speed="13.42" length="16.74" shape="307.20,1.60 303.85,2.09 300.34,3.56 296.67,6.00 292.84,9.42"/>
    </edge>
    <edge id=":gneJ0_6" function="internal">
        <lane id=":gneJ0_6_0" index="0" speed="13.89" length="18.93" shape="307.20,1.60 288.27,1.60"/>
    </edge>
    <edge id=":gneJ0_7" function="internal">
        <lane id=":gneJ0_7_0" index="0" speed="8.00" length="5.93" shape="307.20,1.60 303.35,1.05 301.60,0.00"/>
    </edge>
    <edge id=":gneJ0_21" function="internal">
        <lane id=":gneJ0_21_0" index="0" speed="8.00" length="8.26" shape="301.60,0.00 300.60,-0.60 298.95,-3.35 298.40,-7.20"/>
    </edge>
    <edge id=":gneJ0_8" function="internal">
        <lane id=":gneJ0_8_0" index="0" speed="6.51" length="9.03" shape="301.60,-7.20 301.95,-4.75 303.00,-3.00 304.75,-1.95 307.20,-1.60"/>
    </edge>
    <edge id=":gneJ0_9" function="internal">
        <lane id=":gneJ0_9_0" index="0" speed="13.89" length="18.93" shape="301.60,-7.20 301.60,11.73"/>
    </edge>
    <edge id=":gneJ0_10" function="internal">
        <lane id=":gneJ0_10_0" index="0" speed="13.89" length="6.85" shape="301.60,-7.20 301.05,-3.21 300.00,-0.59"/>
    </edge>
    <edge id=":gneJ0_11" function="internal">
        <lane id=":gneJ0_11_0" index="0" speed="8.71" length="5.08" shape="301.60,-7.20 300.27,-3.97 299.06,-2.95"/>
    </edge>
    <edge id=":gneJ0_22" function="internal">
        <lane id=":gneJ0_22_0" index="0" speed="13.89" length="12.39" shape="300.00,-0.59 299.41,0.89 296.67,5.10 292.84,9.42"/>
    </edge>
    <edge id=":gneJ0_23" function="internal">
        <lane id=":gneJ0_23_0" index="0" speed="8.71" length="11.94" shape="299.06,-2.95 296.93,-1.15 292.60,0.84 288.27,1.60"/>
    </edge>
    <edge id=":gneJ0_12" function="internal">
        <lane id=":gneJ0_12_0" index="0" speed="7.65" length="12.89" shape="288.27,-1.60 292.70,-1.95 295.87,-3.00 297.77,-4.75 298.40,-7.20"/>
    </edge>
    <edge id=":gneJ0_13" function="internal">
        <lane id=":gneJ0_13_0" index="0" speed="13.89" length="18.93" shape="288.27,-1.60 307.20,-1.60"/>
    </edge>
    <edge id=":gneJ0_14" function="internal">
        <lane id=":gneJ0_14_0" index="0" speed="9.73" length="7.38" shape="288.27,-1.60 294.10,-0.77 295.38,-0.00"/>
    </edge>
    <edge id=":gneJ0_15" function="internal">
        <lane id=":gneJ0_15_0" index="0" speed="7.42" length="7.71" shape="288.27,-1.60 294.41,-0.91 295.64,-0.00"/>
    </edge>
    <edge id=":gneJ0_24" function="internal">
        <lane id=":gneJ0_24_0" index="0" speed="9.73" length="14.11" shape="295.38,-0.00 298.27,1.73 300.77,5.90 301.60,11.73"/>
    </edge>
    <edge id=":gneJ0_25" function="internal">
        <lane id=":gneJ0_25_0" index="0" speed="7.42" length="11.60" shape="295.64,-0.00 297.21,1.16 296.69,4.60 292.84,9.42"/>
    </edge>
    <edge id=":gneJ0_16" function="internal">
        <lane id=":gneJ0_16_0" index="0" speed="5.47" length="9.74" shape="290.58,7.16 292.52,4.73 292.78,2.99 291.37,1.95 288.27,1.60"/>
    </edge>
    <edge id=":gneJ0_17" function="internal">
        <lane id=":gneJ0_17_0" index="0" speed="13.42" length="16.74" shape="290.58,7.16 294.00,3.33 296.44,-0.34 297.91,-3.85 298.40,-7.20"/>
    </edge>
    <edge id=":gneJ0_18" function="internal">
        <lane id=":gneJ0_18_0" index="0" speed="13.89" length="19.24" shape="290.58,7.16 294.90,3.33 299.11,0.59 303.21,-1.05 307.20,-1.60"/>
    </edge>
    <edge id=":gneJ0_19" function="internal">
        <lane id=":gneJ0_19_0" index="0" speed="7.42" length="19.31" shape="290.58,7.16 295.40,3.31 298.84,2.79 300.91,5.59 301.60,11.73"/>
    </edge>
    <edge id=":gneJ1_0" function="internal">
        <lane id=":gneJ1_0_0" index="0" speed="7.65" length="12.89" shape="298.40,-92.80 297.77,-95.25 295.87,-97.00 292.70,-98.05 288.27,-98.40"/>
    </edge>
    <edge id=":gneJ1_1" function="internal">
        <lane id=":gneJ1_1_0" index="0" speed="13.42" length="16.74" shape="298.40,-92.80 297.91,-96.15 296.44,-99.66 294.00,-103.33 290.58,-107.16"/>
    </edge>
    <edge id=":gneJ1_2" function="internal">
        <lane id=":gneJ1_2_0" index="0" speed="13.89" length="18.93" shape="298.40,-92.80 298.40,-111.73"/>
    </edge>
    <edge id=":gneJ1_3" function="internal">
        <lane id=":gneJ1_3_0" index="0" speed="8.00" length="5.93" shape="298.40,-92.80 298.95,-96.65 300.00,-98.40"/>
    </edge>
    <edge id=":gneJ1_20" function="internal">
        <lane id=":gneJ1_20_0" index="0" speed="8.00" length="8.26" shape="300.00,-98.40 300.60,-99.40 303.35,-101.05 307.20,-101.60"/>
    </edge>
    <edge id=":gneJ1_4" function="internal">
        <lane id=":gneJ1_4_0" index="0" speed="6.51" length="9.03" shape="307.20,-98.40 304.75,-98.05 303.00,-97.00 301.95,-95.25 301.60,-92.80"/>
    </edge>
    <edge id=":gneJ1_5" function="internal">
        <lane id=":gneJ1_5_0" index="0" speed="13.89" length="18.93" shape="307.20,-98.40 288.27,-98.40"/>
    </edge>
    <edge id=":gneJ1_6" function="internal">
        <lane id=":gneJ1_6_0" index="0" speed="13.89" length="6.85" shape="307.20,-98.40 303.21,-98.95 300.59,-100.00"/>
    </edge>
    <edge id=":gneJ1_7" function="internal">
        <lane id=":gneJ1_7_0" index="0" speed="8.94" length="5.08" shape="307.20,-98.40 303.35,-99.23 302.51,-100.00"/>
    </edge>
    <edge id=":gneJ1_21" function="internal">
        <lane id=":gneJ1_21_0" index="0" speed="13.89" length="12.39" shape="300.59,-100.00 299.11,-100.59 294.90,-103.33 290.58,-107.16"/>
    </edge>
    <edge id=":gneJ1_22" function="internal">
        <lane id=":gneJ1_22_0" index="0" speed="8.94" length="12.91" shape="302.51,-100.00 300.60,-101.73 298.95,-105.90 298.40,-111.73"/>
    </edge>
    <edge id=":gneJ1_8" function="internal">
        <lane id=":gneJ1_8_0" index="0" speed="7.65" length="12.89" shape="301.60,-111.73 301.95,-107.30 303.00,-104.13 304.75,-102.23 307.20,-101.60"/>
    </edge>
    <edge id=":gneJ1_9" function="internal">
        <lane id=":gneJ1_9_0" index="0" speed="13.89" length="18.93" shape="301.60,-111.73 301.60,-92.80"/>
    </edge>
    <edge id=":gneJ1_10" function="internal">
        <lane id=":gneJ1_10_0" index="0" speed="9.73" length="7.38" shape="301.60,-111.73 300.77,-105.90 300.00,-104.62"/>
    </edge>
    <edge id=":gneJ1_11" function="internal">
        <lane id=":gneJ1_11_0" index="0" speed="7.42" length="7.71" shape="301.60,-111.73 300.91,-105.59 300.00,-104.36"/>
    </edge>
    <edge id=":gneJ1_23" function="internal">
        <lane id=":gneJ1_23_0" index="0" speed="9.73" length="14.11" shape="300.00,-104.62 298.27,-101.73 294.10,-99.23 288.27,-98.40"/>
    </edge>
    <edge id=":gneJ1_24" function="internal">
        <lane id=":gneJ1_24_0" index="0" speed="7.42" length="11.60" shape="300.00,-104.36 298.84,-102.79 295.40,-103.31 290.58,-107.16"/>
    </edge>
    <edge id=":gneJ1_12" function="internal">
        <lane id=":gneJ1_12_0" index="0" speed="5.47" length="9.74" shape="292.84,-109.42 295.27,-107.48 297.01,-107.22 298.05,-108.63 298.40,-111.73"/>
    </edge>
    <edge id=":gneJ1_13" function="internal">
        <lane id=":gneJ1_13_0" index="0" speed="13.42" length="16.74" shape="292.84,-109.42 296.67,-106.00 300.34,-103.56 303.85,-102.09 307.20,-101.60"/>
    </edge>
    <edge id=":gneJ1_14" function="internal">
        <lane id=":gneJ1_14_0" index="0" speed="13.89" length="19.09" shape="292.84,-109.42 295.70,-106.04 298.55,-101.66 300.73,-97.01 301.60,-92.80"/>
    </edge>
    <edge id=":gneJ1_15" function="internal">
        <lane id=":gneJ1_15_0" index="0" speed="7.42" length="19.31" shape="292.84,-109.42 296.69,-104.60 297.21,-101.16 294.41,-99.09 288.27,-98.40"/>
    </edge>
    <edge id=":gneJ1_16" function="internal">
        <lane id=":gneJ1_16_0" index="0" speed="5.47" length="9.74" shape="288.27,-101.60 291.37,-101.95 292.78,-102.99 292.52,-104.73 290.58,-107.16"/>
    </edge>
    <edge id=":gneJ1_17" function="internal">
        <lane id=":gneJ1_17_0" index="0" speed="8.54" length="16.33" shape="288.27,-101.60 292.70,-102.23 295.87,-104.13 297.77,-107.30 298.40,-111.73"/>
    </edge>
    <edge id=":gneJ1_18" function="internal">
        <lane id=":gneJ1_18_0" index="0" speed="13.89" length="18.93" shape="288.27,-101.60 307.20,-101.60"/>
    </edge>
    <edge id=":gneJ1_19" function="internal">
        <lane id=":gneJ1_19_0" index="0" speed="8.71" length="6.41" shape="288.27,-101.60 292.60,-100.84 294.44,-100.00"/>
    </edge>
    <edge id=":gneJ1_25" function="internal">
        <lane id=":gneJ1_25_0" index="0" speed="8.71" length="10.61" shape="294.44,-100.00 296.93,-98.85 300.27,-96.03 301.60,-92.80"/>
    </edge>
    <edge id=":gneJ10_0" function="internal">
        <lane id=":gneJ10_0_0" index="0" speed="6.08" length="7.74" shape="103.20,1.60 101.10,1.30 99.60,0.40 98.70,-1.10 98.40,-3.20"/>
    </edge>
    <edge id=":gneJ10_1" function="internal">
        <lane id=":gneJ10_1_0" index="0" speed="3.90" length="2.58" shape="101.60,-3.20 101.70,-2.50 102.00,-2.00 102.50,-1.70 103.20,-1.60"/>
    </edge>
    <edge id=":gneJ11_0" function="internal">
        <lane id=":gneJ11_0_0" index="0" speed="6.08" length="7.74" shape="98.40,-96.80 98.70,-98.90 99.60,-100.40 101.10,-101.30 103.20,-101.60"/>
    </edge>
    <edge id=":gneJ11_1" function="internal">
        <lane id=":gneJ11_1_0" index="0" speed="3.90" length="2.58" shape="103.20,-98.40 102.50,-98.30 102.00,-98.00 101.70,-97.50 101.60,-96.80"/>
    </edge>
    <edge id=":gneJ12_0" function="internal">
        <lane id=":gneJ12_0_0" index="0" speed="8.54" length="16.33" shape="198.40,-188.27 197.77,-192.70 195.87,-195.87 192.70,-197.77 188.27,-198.40"/>
    </edge>
    <edge id=":gneJ12_1" function="internal">
        <lane id=":gneJ12_1_0" index="0" speed="13.89" length="20.98" shape="198.40,-188.27 197.91,-193.60 196.44,-198.53 194.00,-203.05 190.58,-207.16"/>
    </edge>
    <edge id=":gneJ12_2" function="internal">
        <lane id=":gneJ12_2_0" index="0" speed="13.89" length="23.45" shape="198.40,-188.27 198.40,-211.73"/>
    </edge>
    <edge id=":gneJ12_3" function="internal">
        <lane id=":gneJ12_3_0" index="0" speed="9.73" length="7.38" shape="198.40,-188.27 199.23,-194.10 200.00,-195.38"/>
    </edge>
    <edge id=":gneJ12_4" function="internal">
        <lane id=":gneJ12_4_0" index="0" speed="7.42" length="7.71" shape="198.40,-188.27 199.09,-194.41 200.00,-195.64"/>
    </edge>
    <edge id=":gneJ12_30" function="internal">
        <lane id=":gneJ12_30_0" index="0" speed="9.73" length="14.11" shape="200.00,-195.38 201.73,-198.27 205.90,-200.77 211.73,-201.60"/>
    </edge>
    <edge id=":gneJ12_31" function="internal">
        <lane id=":gneJ12_31_0" index="0" speed="7.42" length="11.60" shape="200.00,-195.64 201.16,-197.21 204.60,-196.69 209.42,-192.84"/>
    </edge>
    <edge id=":gneJ12_5" function="internal">
        <lane id=":gneJ12_5_0" index="0" speed="5.47" length="9.74" shape="207.16,-190.58 204.73,-192.52 202.99,-192.78 201.95,-191.37 201.60,-188.27"/>
    </edge>
    <edge id=":gneJ12_6" function="internal">
        <lane id=":gneJ12_6_0" index="0" speed="13.89" length="20.98" shape="207.16,-190.58 203.05,-194.00 198.53,-196.44 193.60,-197.91 188.27,-198.40"/>
    </edge>
    <edge id=":gneJ12_7" function="internal">
        <lane id=":gneJ12_7_0" index="0" speed="13.89" length="23.45" shape="207.16,-190.58 190.58,-207.16"/>
    </edge>
    <edge id=":gneJ12_8" function="internal">
        <lane id=":gneJ12_8_0" index="0" speed="13.89" length="9.68" shape="207.16,-190.58 203.33,-195.18 201.57,-198.43"/>
    </edge>
    <edge id=":gneJ12_9" function="internal">
        <lane id=":gneJ12_9_0" index="0" speed="7.42" length="7.71" shape="207.16,-190.58 203.31,-195.40 203.08,-196.92"/>
    </edge>
    <edge id=":gneJ12_32" function="internal">
        <lane id=":gneJ12_32_0" index="0" speed="13.89" length="13.81" shape="201.57,-198.43 200.59,-200.24 198.95,-205.76 198.40,-211.73"/>
    </edge>
    <edge id=":gneJ12_33" function="internal">
        <lane id=":gneJ12_33_0" index="0" speed="7.42" length="11.60" shape="203.08,-196.92 202.79,-198.84 205.59,-200.91 211.73,-201.60"/>
    </edge>
    <edge id=":gneJ12_10" function="internal">
        <lane id=":gneJ12_10_0" index="0" speed="5.47" length="9.74" shape="211.73,-198.40 208.63,-198.05 207.22,-197.01 207.48,-195.27 209.42,-192.84"/>
    </edge>
    <edge id=":gneJ12_11" function="internal">
        <lane id=":gneJ12_11_0" index="0" speed="8.54" length="16.33" shape="211.73,-198.40 207.30,-197.77 204.13,-195.87 202.23,-192.70 201.60,-188.27"/>
    </edge>
    <edge id=":gneJ12_12" function="internal">
        <lane id=":gneJ12_12_0" index="0" speed="13.89" length="23.45" shape="211.73,-198.40 188.27,-198.40"/>
    </edge>
    <edge id=":gneJ12_13" function="internal">
        <lane id=":gneJ12_13_0" index="0" speed="13.89" length="9.68" shape="211.73,-198.40 205.76,-198.95 202.22,-200.00"/>
    </edge>
    <edge id=":gneJ12_14" function="internal">
        <lane id=":gneJ12_14_0" index="0" speed="9.73" length="7.38" shape="211.73,-198.40 205.90,-199.23 204.62,-200.00"/>
    </edge>
    <edge id=":gneJ12_34" function="internal">
        <lane id=":gneJ12_34_0" index="0" speed="13.89" length="13.81" shape="202.22,-200.00 200.24,-200.59 195.18,-203.33 190.58,-207.16"/>
    </edge>
    <edge id=":gneJ12_35" function="internal">
        <lane id=":gneJ12_35_0" index="0" speed="9.73" length="14.11" shape="204.62,-200.00 201.73,-201.73 199.23,-205.90 198.40,-211.73"/>
    </edge>
    <edge id=":gneJ12_15" function="internal">
        <lane id=":gneJ12_15_0" index="0" speed="8.54" length="16.33" shape="201.60,-211.73 202.23,-207.30 204.13,-204.13 207.30,-202.23 211.73,-201.60"/>
    </edge>
    <edge id=":gneJ12_16" function="internal">
        <lane id=":gneJ12_16_0" index="0" speed="13.89" length="20.72" shape="201.60,-211.73 202.33,-207.16 204.19,-201.73 206.71,-196.58 209.42,-192.84"/>
    </edge>
    <edge id=":gneJ12_17" function="internal">
        <lane id=":gneJ12_17_0" index="0" speed="13.89" length="23.45" shape="201.60,-211.73 201.60,-188.27"/>
    </edge>
    <edge id=":gneJ12_18" function="internal">
        <lane id=":gneJ12_18_0" index="0" speed="9.73" length="7.38" shape="201.60,-211.73 200.77,-205.90 200.00,-204.62"/>
    </edge>
    <edge id=":gneJ12_19" function="internal">
        <lane id=":gneJ12_19_0" index="0" speed="7.42" length="7.71" shape="201.60,-211.73 200.91,-205.59 200.00,-204.36"/>
    </edge>
    <edge id=":gneJ12_36" function="internal">
        <lane id=":gneJ12_36_0" index="0" speed="9.73" length="14.11" shape="200.00,-204.62 198.27,-201.73 194.10,-199.23 188.27,-198.40"/>
    </edge>
    <edge id=":gneJ12_37" function="internal">
        <lane id=":gneJ12_37_0" index="0" speed="7.42" length="11.60" shape="200.00,-204.36 198.84,-202.79 195.40,-203.31 190.58,-207.16"/>
    </edge>
    <edge id=":gneJ12_20" function="internal">
        <lane id=":gneJ12_20_0" index="0" speed="5.47" length="9.74" shape="192.84,-209.42 195.27,-207.48 197.01,-207.22 198.05,-208.63 198.40,-211.73"/>
    </edge>
    <edge id=":gneJ12_21" function="internal">
        <lane id=":gneJ12_21_0" index="0" speed="13.89" length="20.98" shape="192.84,-209.42 196.95,-206.00 201.47,-203.56 206.40,-202.09 211.73,-201.60"/>
    </edge>
    <edge id=":gneJ12_22" function="internal">
        <lane id=":gneJ12_22_0" index="0" speed="13.89" length="23.45" shape="192.84,-209.42 209.42,-192.84"/>
    </edge>
    <edge id=":gneJ12_23" function="internal">
        <lane id=":gneJ12_23_0" index="0" speed="13.89" length="7.19" shape="192.84,-209.42 195.70,-205.33 196.65,-203.35"/>
    </edge>
    <edge id=":gneJ12_24" function="internal">
        <lane id=":gneJ12_24_0" index="0" speed="7.42" length="7.71" shape="192.84,-209.42 196.69,-204.60 196.92,-203.08"/>
    </edge>
    <edge id=":gneJ12_38" function="internal">
        <lane id=":gneJ12_38_0" index="0" speed="13.89" length="15.96" shape="196.65,-203.35 198.55,-199.40 200.73,-193.19 201.60,-188.27"/>
    </edge>
    <edge id=":gneJ12_39" function="internal">
        <lane id=":gneJ12_39_0" index="0" speed="7.42" length="11.60" shape="196.92,-203.08 197.21,-201.16 194.41,-199.09 188.27,-198.40"/>
    </edge>
    <edge id=":gneJ12_25" function="internal">
        <lane id=":gneJ12_25_0" index="0" speed="5.47" length="9.74" shape="188.27,-201.60 191.37,-201.95 192.78,-202.99 192.52,-204.73 190.58,-207.16"/>
    </edge>
    <edge id=":gneJ12_26" function="internal">
        <lane id=":gneJ12_26_0" index="0" speed="8.54" length="16.33" shape="188.27,-201.60 192.70,-202.23 195.87,-204.13 197.77,-207.30 198.40,-211.73"/>
    </edge>
    <edge id=":gneJ12_27" function="internal">
        <lane id=":gneJ12_27_0" index="0" speed="13.89" length="23.45" shape="188.27,-201.60 211.73,-201.60"/>
    </edge>
    <edge id=":gneJ12_28" function="internal">
        <lane id=":gneJ12_28_0" index="0" speed="13.89" length="9.68" shape="188.27,-201.60 194.24,-201.05 197.78,-200.00"/>
    </edge>
    <edge id=":gneJ12_29" function="internal">
        <lane id=":gneJ12_29_0" index="0" speed="9.73" length="7.38" shape="188.27,-201.60 194.10,-200.77 195.38,-200.00"/>
    </edge>
    <edge id=":gneJ12_40" function="internal">
        <lane id=":gneJ12_40_0" index="0" speed="13.89" length="13.81" shape="197.78,-200.00 199.76,-199.41 204.82,-196.67 209.42,-192.84"/>
    </edge>
    <edge id=":gneJ12_41" function="internal">
        <lane id=":gneJ12_41_0" index="0" speed="9.73" length="14.11" shape="195.38,-200.00 198.27,-198.27 200.77,-194.10 201.60,-188.27"/>
    </edge>
    <edge id=":gneJ13_0" function="internal">
        <lane id=":gneJ13_0_0" index="0" speed="6.51" length="9.03" shape="298.40,-192.80 298.05,-195.25 297.00,-197.00 295.25,-198.05 292.80,-198.40"/>
    </edge>
    <edge id=":gneJ13_1" function="internal">
        <lane id=":gneJ13_1_0" index="0" speed="13.89" length="14.40" shape="298.40,-192.80 298.40,-207.20"/>
    </edge>
    <edge id=":gneJ13_2" function="internal">
        <lane id=":gneJ13_2_0" index="0" speed="8.00" length="5.93" shape="298.40,-192.80 298.95,-196.65 300.00,-198.40"/>
    </edge>
    <edge id=":gneJ13_12" function="internal">
        <lane id=":gneJ13_12_0" index="0" speed="8.00" length="8.26" shape="300.00,-198.40 300.60,-199.40 303.35,-201.05 307.20,-201.60"/>
    </edge>
    <edge id=":gneJ13_3" function="internal">
        <lane id=":gneJ13_3_0" index="0" speed="6.51" length="9.03" shape="307.20,-198.40 304.75,-198.05 303.00,-197.00 301.95,-195.25 301.60,-192.80"/>
    </edge>
    <edge id=":gneJ13_4" function="internal">
        <lane id=":gneJ13_4_0" index="0" speed="13.89" length="14.40" shape="307.20,-198.40 292.80,-198.40"/>
    </edge>
    <edge id=":gneJ13_5" function="internal">
        <lane id=":gneJ13_5_0" index="0" speed="8.00" length="5.93" shape="307.20,-198.40 303.35,-198.95 301.60,-200.00"/>
    </edge>
    <edge id=":gneJ13_13" function="internal">
        <lane id=":gneJ13_13_0" index="0" speed="8.00" length="8.26" shape="301.60,-200.00 300.60,-200.60 298.95,-203.35 298.40,-207.20"/>
    </edge>
    <edge id=":gneJ13_6" function="internal">
        <lane id=":gneJ13_6_0" index="0" speed="6.51" length="9.03" shape="301.60,-207.20 301.95,-204.75 303.00,-203.00 304.75,-201.95 307.20,-201.60"/>
    </edge>
    <edge id=":gneJ13_7" function="internal">
        <lane id=":gneJ13_7_0" index="0" speed="13.89" length="14.40" shape="301.60,-207.20 301.60,-192.80"/>
    </edge>
    <edge id=":gneJ13_8" function="internal">
        <lane id=":gneJ13_8_0" index="0" speed="8.00" length="5.93" shape="301.60,-207.20 301.05,-203.35 300.00,-201.60"/>
    </edge>
    <edge id=":gneJ13_14" function="internal">
        <lane id=":gneJ13_14_0" index="0" speed="8.00" length="8.26" shape="300.00,-201.60 299.40,-200.60 296.65,-198.95 292.80,-198.40"/>
    </edge>
    <edge id=":gneJ13_9" function="internal">
        <lane id=":gneJ13_9_0" index="0" speed="6.51" length="9.03" shape="292.80,-201.60 295.25,-201.95 297.00,-203.00 298.05,-204.75 298.40,-207.20"/>
    </edge>
    <edge id=":gneJ13_10" function="internal">
        <lane id=":gneJ13_10_0" index="0" speed="13.89" length="14.40" shape="292.80,-201.60 307.20,-201.60"/>
    </edge>
    <edge id=":gneJ13_11" function="internal">
        <lane id=":gneJ13_11_0" index="0" speed="8.00" length="5.93" shape="292.80,-201.60 296.65,-201.05 298.40,-200.00"/>
    </edge>
    <edge id=":gneJ13_15" function="internal">
        <lane id=":gneJ13_15_0" index="0" speed="8.00" length="8.26" shape="298.40,-200.00 299.40,-199.40 301.05,-196.65 301.60,-192.80"/>
    </edge>
    <edge id=":gneJ14_0" function="internal">
        <lane id=":gneJ14_0_0" index="0" speed="6.51" length="9.03" shape="398.40,-192.80 398.05,-195.25 397.00,-197.00 395.25,-198.05 392.80,-198.40"/>
    </edge>
    <edge id=":gneJ14_1" function="internal">
        <lane id=":gneJ14_1_0" index="0" speed="13.89" length="14.40" shape="398.40,-192.80 398.40,-207.20"/>
    </edge>
    <edge id=":gneJ14_2" function="internal">
        <lane id=":gneJ14_2_0" index="0" speed="8.00" length="5.93" shape="398.40,-192.80 398.95,-196.65 400.00,-198.40"/>
    </edge>
    <edge id=":gneJ14_12" function="internal">
        <lane id=":gneJ14_12_0" index="0" speed="8.00" length="8.26" shape="400.00,-198.40 400.60,-199.40 403.35,-201.05 407.20,-201.60"/>
    </edge>
    <edge id=":gneJ14_3" function="internal">
        <lane id=":gneJ14_3_0" index="0" speed="6.51" length="9.03" shape="407.20,-198.40 404.75,-198.05 403.00,-197.00 401.95,-195.25 401.60,-192.80"/>
    </edge>
    <edge id=":gneJ14_4" function="internal">
        <lane id=":gneJ14_4_0" index="0" speed="13.89" length="14.40" shape="407.20,-198.40 392.80,-198.40"/>
    </edge>
    <edge id=":gneJ14_5" function="internal">
        <lane id=":gneJ14_5_0" index="0" speed="8.00" length="5.93" shape="407.20,-198.40 403.35,-198.95 401.60,-200.00"/>
    </edge>
    <edge id=":gneJ14_13" function="internal">
        <lane id=":gneJ14_13_0" index="0" speed="8.00" length="8.26" shape="401.60,-200.00 400.60,-200.60 398.95,-203.35 398.40,-207.20"/>
    </edge>
    <edge id=":gneJ14_6" function="internal">
        <lane id=":gneJ14_6_0" index="0" speed="6.51" length="9.03" shape="401.60,-207.20 401.95,-204.75 403.00,-203.00 404.75,-201.95 407.20,-201.60"/>
    </edge>
    <edge id=":gneJ14_7" function="internal">
        <lane id=":gneJ14_7_0" index="0" speed="13.89" length="14.40" shape="401.60,-207.20 401.60,-192.80"/>
    </edge>
    <edge id=":gneJ14_8" function="internal">
        <lane id=":gneJ14_8_0" index="0" speed="8.00" length="5.93" shape="401.60,-207.20 401.05,-203.35 400.00,-201.60"/>
    </edge>
    <edge id=":gneJ14_14" function="internal">
        <lane id=":gneJ14_14_0" index="0" speed="8.00" length="8.26" shape="400.00,-201.60 399.40,-200.60 396.65,-198.95 392.80,-198.40"/>
    </edge>
    <edge id=":gneJ14_9" function="internal">
        <lane id=":gneJ14_9_0" index="0" speed="6.51" length="9.03" shape="392.80,-201.60 395.25,-201.95 397.00,-203.00 398.05,-204.75 398.40,-207.20"/>
    </edge>
    <edge id=":gneJ14_10" function="internal">
        <lane id=":gneJ14_10_0" index="0" speed="13.89" length="14.40" shape="392.80,-201.60 407.20,-201.60"/>
    </edge>
    <edge id=":gneJ14_11" function="internal">
        <lane id=":gneJ14_11_0" index="0" speed="8.00" length="5.93" shape="392.80,-201.60 396.65,-201.05 398.40,-200.00"/>
    </edge>
    <edge id=":gneJ14_15" function="internal">
        <lane id=":gneJ14_15_0" index="0" speed="8.00" length="8.26" shape="398.40,-200.00 399.40,-199.40 401.05,-196.65 401.60,-192.80"/>
    </edge>
    <edge id=":gneJ15_0" function="internal">
        <lane id=":gneJ15_0_0" index="0" speed="5.47" length="9.74" shape="498.40,-188.27 498.05,-191.37 497.01,-192.78 495.27,-192.52 492.84,-190.58"/>
    </edge>
    <edge id=":gneJ15_1" function="internal">
        <lane id=":gneJ15_1_0" index="0" speed="8.54" length="16.33" shape="498.40,-188.27 497.77,-192.70 495.87,-195.87 492.70,-197.77 488.27,-198.40"/>
    </edge>
    <edge id=":gneJ15_2" function="internal">
        <lane id=":gneJ15_2_0" index="0" speed="13.89" length="23.45" shape="498.40,-188.27 498.40,-211.73"/>
    </edge>
    <edge id=":gneJ15_3" function="internal">
        <lane id=":gneJ15_3_0" index="0" speed="13.89" length="7.19" shape="498.40,-188.27 499.27,-193.19 500.00,-195.26"/>
    </edge>
    <edge id=":gneJ15_4" function="internal">
        <lane id=":gneJ15_4_0" index="0" speed="9.73" length="7.38" shape="498.40,-188.27 499.23,-194.10 500.00,-195.38"/>
    </edge>
    <edge id=":gneJ15_30" function="internal">
        <lane id=":gneJ15_30_0" index="0" speed="13.89" length="15.96" shape="500.00,-195.26 501.45,-199.40 504.30,-205.33 507.16,-209.42"/>
    </edge>
    <edge id=":gneJ15_31" function="internal">
        <lane id=":gneJ15_31_0" index="0" speed="9.73" length="14.11" shape="500.00,-195.38 501.73,-198.27 505.90,-200.77 511.73,-201.60"/>
    </edge>
    <edge id=":gneJ15_5" function="internal">
        <lane id=":gneJ15_5_0" index="0" speed="8.54" length="16.33" shape="511.73,-198.40 507.30,-197.77 504.13,-195.87 502.23,-192.70 501.60,-188.27"/>
    </edge>
    <edge id=":gneJ15_6" function="internal">
        <lane id=":gneJ15_6_0" index="0" speed="13.89" length="20.98" shape="511.73,-198.40 506.40,-197.91 501.47,-196.44 496.95,-194.00 492.84,-190.58"/>
    </edge>
    <edge id=":gneJ15_7" function="internal">
        <lane id=":gneJ15_7_0" index="0" speed="13.89" length="23.45" shape="511.73,-198.40 488.27,-198.40"/>
    </edge>
    <edge id=":gneJ15_8" function="internal">
        <lane id=":gneJ15_8_0" index="0" speed="9.73" length="7.38" shape="511.73,-198.40 505.90,-199.23 504.62,-200.00"/>
    </edge>
    <edge id=":gneJ15_9" function="internal">
        <lane id=":gneJ15_9_0" index="0" speed="7.42" length="7.71" shape="511.73,-198.40 505.59,-199.09 504.36,-200.00"/>
    </edge>
    <edge id=":gneJ15_32" function="internal">
        <lane id=":gneJ15_32_0" index="0" speed="9.73" length="14.11" shape="504.62,-200.00 501.73,-201.73 499.23,-205.90 498.40,-211.73"/>
    </edge>
    <edge id=":gneJ15_33" function="internal">
        <lane id=":gneJ15_33_0" index="0" speed="7.42" length="11.60" shape="504.36,-200.00 502.79,-201.16 503.31,-204.60 507.16,-209.42"/>
    </edge>
    <edge id=":gneJ15_10" function="internal">
        <lane id=":gneJ15_10_0" index="0" speed="5.47" length="9.74" shape="509.42,-207.16 507.48,-204.73 507.22,-202.99 508.63,-201.95 511.73,-201.60"/>
    </edge>
    <edge id=":gneJ15_11" function="internal">
        <lane id=":gneJ15_11_0" index="0" speed="13.89" length="20.98" shape="509.42,-207.16 506.00,-203.05 503.56,-198.53 502.09,-193.60 501.60,-188.27"/>
    </edge>
    <edge id=":gneJ15_12" function="internal">
        <lane id=":gneJ15_12_0" index="0" speed="13.89" length="23.45" shape="509.42,-207.16 492.84,-190.58"/>
    </edge>
    <edge id=":gneJ15_13" function="internal">
        <lane id=":gneJ15_13_0" index="0" speed="13.89" length="7.19" shape="509.42,-207.16 505.33,-204.30 503.35,-203.35"/>
    </edge>
    <edge id=":gneJ15_14" function="internal">
        <lane id=":gneJ15_14_0" index="0" speed="7.42" length="7.71" shape="509.42,-207.16 504.60,-203.31 503.08,-203.08"/>
    </edge>
    <edge id=":gneJ15_34" function="internal">
        <lane id=":gneJ15_34_0" index="0" speed="13.89" length="15.96" shape="503.35,-203.35 499.40,-201.45 493.19,-199.27 488.27,-198.40"/>
    </edge>
    <edge id=":gneJ15_35" function="internal">
        <lane id=":gneJ15_35_0" index="0" speed="7.42" length="11.60" shape="503.08,-203.08 501.16,-202.79 499.09,-205.59 498.40,-211.73"/>
    </edge>
    <edge id=":gneJ15_15" function="internal">