<?xml version="1.0" encoding="UTF-8"?>

<!-- generated on 2021-11-24 13:03:42 by Eclipse SUMO GUI Version 1.9.2
-->

<configuration xmlns:xsi="http://www.w3.org/2001/XMLSchema-instance" xsi:noNamespaceSchemaLocation="http://sumo.dlr.de/xsd/sumoConfiguration.xsd">
    <time-to-teleport value="-1"/>

    <input>
        <net-file value="C:\Users\hi672\Desktop\sumo\trafficLightFixed.net.xml"/>
    </input>

</configuration>
